/*--------------------------------*- C++ -*----------------------------------*\
  =========                 |
  \\      /  F ield         | OpenFOAM: The Open Source CFD Toolbox
   \\    /   O peration     | Website:  https://openfoam.org
    \\  /    A nd           | Version:  7  
     \\/     M anipulation  |
\*---------------------------------------------------------------------------*/
FoamFile
{
    version     2.0;
    format      ascii;
    class       dictionary;
    object      blockMeshDict;
}
// * * * * * * * * * * * * * * * * * * * * * * * * * * * * * * * * * * * * * //

convertToMeters 0.1;

vertices
(
    (-1 -1   -1)
    ( 1 -1   -1)
    ( 1  1   -1)
    (-1  1   -1)
    (-1 -1   1)
    ( 1 -1   1)
    ( 1  1   1)
    (-1  1   1)
);

blocks
(
    hex (0 1 2 3 4 5 6 7) (5 5 5) simpleGrading (1 1 1)
);

boundary
(
    top
    {
        type wall;
        faces
        (
            (4 5 6 7)
        );
    }

    bottom
    {
        type wall;
        faces
        (
            (0 1 2 3)
        );
    }

    walls
    {
        type wall;
        faces
        (
            (0 1 5 4)
            (2 3 7 6)
            (1 2 6 5)
            (3 0 4 7)
        );
    }
);

// ************************************************************************* //
