/*--------------------------------*- C++ -*----------------------------------*\
| =========                 |                                                 |
| \\      /  F ield         | OpenFOAM: The Open Source CFD Toolbox           |
|  \\    /   O peration     | Version:  2.4.0                                 |
|   \\  /    A nd           | Web:      www.OpenFOAM.org                      |
|    \\/     M anipulation  |                                                 |
\*---------------------------------------------------------------------------*/

FoamFile
{
    version     2.0;
    format      ascii;
    location    "";
    class       vectorField;
    object      coalCloudPositions;
}

// * * * * * * * * * * * * * * * * * * * * * * * * * * * * * * * * * * * * * //
(

    (0.0 0.0 0.0)

)
// ************************************************************************* //
