/*--------------------------------*- C++ -*----------------------------------*\
| =========                 |                                                 |
| \\      /  F ield         | OpenFOAM: The Open Source CFD Toolbox           |
|  \\    /   O peration     | Version:  2.1.0                                 |
|   \\  /    A nd           | Web:      www.OpenFOAM.org                      |
|    \\/     M anipulation  |                                                 |
\*---------------------------------------------------------------------------*/
FoamFile
{
    version     2.0;
    format      ascii;
    class       dictionary;
    location    "constant";
    object      foam.dat;
}
// * * * * * * * * * * * * * * * * * * * * * * * * * * * * * * * * * * * * * //

CO2
{
    specie
    {
        nMoles          1;
        molWeight       44.0095;
    }
    thermodynamics
    {
        Tlow            200;
        Thigh           6000;
        Tcommon         1000;
        highCpCoeffs    ( 4.09764217E+00 3.67457532E-03 -1.59876569E-06 3.15438744E-10 -2.31654780E-14 -4.88418848E+04 1.02844377E+00 );
        lowCpCoeffs     ( 2.86457250E+00 4.89615777E-03 3.69475319E-06 -9.21067140E-09 4.22991463E-12 -4.84529480E+04 7.79020443E+00 );
    }
    transport
    {
        As              1.67212e-06;
        Ts              170.672;
    }
}

CO
{
    specie
    {
        nMoles          1;
        molWeight       28.0101;
    }
    thermodynamics
    {
        Tlow            200;
        Thigh           6000;
        Tcommon         1000;
        highCpCoeffs    ( 3.09973111E+00 1.39938400E-03 -5.86119035E-07 1.05027015E-10 -6.93303366E-15 -1.42880812E+04 5.57988857E+00 );
        lowCpCoeffs     ( 3.64886783E+00 -1.29771105E-03 3.23176327E-06 -2.04351461E-09 4.19226412E-13 -1.43006507E+04 3.19220888E+00 );

    }
    transport
    {
        As              1.67212e-06;
        Ts              170.672;
    }
}

CH4
{
    specie
    {
        nMoles          1;
        molWeight       16.0425;
    }
    thermodynamics
    {
        Tlow            200;
        Thigh           6000;
        Tcommon         1000;
        highCpCoeffs    ( 1.65326226E+00  1.00263099E-02 -3.31661238E-06  5.36483138E-10 -3.14696758E-14 -1.00095936E+04  9.90506283E+00 );
        lowCpCoeffs     ( 5.14911468E+00 -1.36622009E-02  4.91453921E-05 -4.84246767E-08  1.66603441E-11 -1.02465983E+04 -4.63848842E+00 );
    }
    transport
    {
        As              1.67212e-06;
        Ts              170.672;
    }
}

H2
{
    specie
    {
        nMoles          1;
        molWeight       2.01588;
    }
    thermodynamics
    {
        Tlow            200;
        Thigh           6000;
        Tcommon         1000;
        highCpCoeffs    ( 3.12142315E+00 3.25032391E-04 1.34936696E-07 -4.73738898E-11 4.02398519E-15 -8.47742008E+02 -2.04220167E+00 );
        lowCpCoeffs     ( 3.47519589E+00 1.77733565E-04 -5.46660477E-07 6.38981462E-10 -1.76853135E-13 -1.03985455E+03 -4.18490180E+00 );
    }
    transport
    {
        As              1.67212e-06;
        Ts              170.672;
    }
}

H2O
{
    specie
    {
        nMoles          1;
        molWeight       18.01528;
    }
    thermodynamics
    {
        Tlow            200;
        Thigh           6000;
        Tcommon         1000;
        highCpCoeffs    ( 3.33750420E+00 1.76130298E-03 -1.83875322E-07 -8.51594288E-12 2.01936721E-15 -3.02435540E+04 3.19667687E+00 );
        lowCpCoeffs     ( 4.04075735E+00 -9.83565739E-04 3.83368806E-06 -2.62200915E-09 6.39565006E-13 -3.03876964E+04 -2.13358759E-01 );
    }
    transport
    {
        As              1.67212e-06;
        Ts              170.672;
    }
}

O2
{
    specie
    {
        nMoles          1;
        molWeight       31.9988;
    }
    thermodynamics
    {
        Tlow            200;
        Thigh           6000;
        Tcommon         1000;
        highCpCoeffs    ( 6.88364948E+00 -3.15144950E-03 5.69327172E-07 3.22339418E-10 -4.09344755E-14 -2.93944454E+03 -1.56432997E+01 );
        lowCpCoeffs     ( 3.53479612E+00 -9.57406360E-04 4.04514674E-06 -3.32687781E-09 8.57406384E-13 -1.04038545E+03 4.61477185E+00 );
    }
    transport
    {
        As              1.67212e-06;
        Ts              170.672;
    }
}

N2
{
    specie
    {
        nMoles          1;
        molWeight       28.0134;
    }
    thermodynamics
    {
        Tlow            200;
        Thigh           6000;
        Tcommon         1000;
        highCpCoeffs    ( 2.95257637E+00  1.39690040E-03 -4.92631603E-07  7.86010195E-11 -4.60755204E-15 -9.23948688E+02 5.87188762E+00 );
        lowCpCoeffs     ( 3.53100528E+00 -1.23660988E-04 -5.02999433E-07  2.43530612E-09 -1.40881235E-12 -1.04697628E+03 2.96747038E+00 );
    }
    transport
    {
        As              1.67212e-06;
        Ts              170.672;
    }
}

tar //C6H8O data from c6h6
{
    specie
    {
        nMoles          1;
        molWeight       96.12524;
    }
    thermodynamics
    {
        Tlow            100;
        Thigh           5000;
        Tcommon         1000;
        highCpCoeffs    ( 1.40558174E+01 1.91849302E-02 -4.83055471E-06 8.57045661E-10 -6.85407294E-14 6.14250436E+03 -5.30087899E+01 );
        lowCpCoeffs     ( 2.53874142E+00 9.96671005E-03 1.01010245E-04 -1.37591758E-07 5.32835440E-11 1.09303186E+04 1.56578651E+01 );
    }
    transport
    {
        As              1.67212e-06;
        Ts              170.672;
    }
}


C2H4
{
    specie
    {
        nMoles          1;
        molWeight       28.0532;
    }
    thermodynamics
    {
        Tlow            200;
        Thigh           6000;
        Tcommon         1001;
        highCpCoeffs    ( 3.99182724E+00  1.04833908E-02 -3.71721342E-06  5.94628366E-10 -3.53630386E-14 4.26865851E+03 -2.69081762E-01);
        lowCpCoeffs     ( 3.95920063E+00 -7.57051373E-03  5.70989993E-05 -6.91588352E-08  2.69884190E-11 5.08977598E+03  4.09730213E+00);
    }
    transport
    {
        As              1.67212e-06;
        Ts              170.672;
    }
}

C2H6
{
    specie
    {
        nMoles          1;
        molWeight       30.069;
    }
    thermodynamics
    {
        Tlow            200;
        Thigh           6000;
        Tcommon         1000;
        highCpCoeffs    ( 4.04666411E+00  1.53538802E-02 -5.47039485E-06  8.77826544E-10 -5.23167531E-14 -1.24473499E+04 -9.68698313E-01 );
        lowCpCoeffs     ( 4.29142572E+00 -5.50154901E-03  5.99438458E-05 -7.08466469E-08  2.68685836E-11 -1.15222056E+04  2.66678994E+00 );
    }
    transport
    {
        As              1.67212e-06;
        Ts              170.672;
    }
}

// ************************************************************************* //
